<?xml version="1.0" encoding="UTF-8"?>

<!-- generated on 2022-01-26 14:32:30 by Eclipse SUMO netedit Version 1.11.0
-->

<routes xmlns:xsi="http://www.w3.org/2001/XMLSchema-instance" xsi:noNamespaceSchemaLocation="http://sumo.dlr.de/xsd/routes_file.xsd">
    <route edges="E4 E5" color="yellow" id="route_0"/>
    <route edges="E2 E3" color="yellow" id="route_1"/>
</routes>
