<?xml version="1.0" encoding="UTF-8"?>

<!-- generated on 2022-04-12 16:32:59 by Eclipse SUMO netedit Version 1.11.0
<configuration xmlns:xsi="http://www.w3.org/2001/XMLSchema-instance" xsi:noNamespaceSchemaLocation="http://sumo.dlr.de/xsd/netconvertConfiguration.xsd">

    <input>
        <sumo-net-file value="C:\Users\zhunc\Documents\Bristol\Individual%20Project\COMSM0052-jj18959\scenarios\crossroads.net.xml"/>
    </input>

    <output>
        <output-file value="C:\Users\zhunc\Documents\Bristol\Individual%20Project\COMSM0052-jj18959\scenarios\crossroads.net.xml"/>
    </output>

    <processing>
        <geometry.min-radius.fix.railways value="false"/>
        <geometry.max-grade.fix value="false"/>
        <offset.disable-normalization value="true"/>
        <lefthand value="true"/>
    </processing>

    <junctions>
        <no-turnarounds value="true"/>
        <junctions.corner-detail value="5"/>
        <junctions.limit-turn-speed value="5.5"/>
        <rectangular-lane-cut value="false"/>
    </junctions>

    <pedestrian>
        <walkingareas value="false"/>
    </pedestrian>

    <report>
        <aggregate-warnings value="5"/>
    </report>

</configuration>
-->

<net version="1.9" junctionCornerDetail="5" lefthand="true" limitTurnSpeed="5.50" xmlns:xsi="http://www.w3.org/2001/XMLSchema-instance" xsi:noNamespaceSchemaLocation="http://sumo.dlr.de/xsd/net_file.xsd">

    <location netOffset="0.00,0.00" convBoundary="0.00,0.00,100.00,100.00" origBoundary="-10000000000.00,-10000000000.00,10000000000.00,10000000000.00" projParameter="!"/>

    <edge id=":J4_0" function="internal">
        <lane id=":J4_0_0" index="0" speed="6.51" length="9.03" shape="48.40,42.80 48.05,45.25 47.00,47.00 45.25,48.05 42.80,48.40"/>
    </edge>
    <edge id=":J4_1" function="internal">
        <lane id=":J4_1_0" index="0" speed="13.89" length="14.40" shape="48.40,42.80 48.40,57.20"/>
    </edge>
    <edge id=":J4_2" function="internal">
        <lane id=":J4_2_0" index="0" speed="8.00" length="5.93" shape="48.40,42.80 48.95,46.65 50.00,48.40"/>
    </edge>
    <edge id=":J4_12" function="internal">
        <lane id=":J4_12_0" index="0" speed="8.00" length="8.26" shape="50.00,48.40 50.60,49.40 53.35,51.05 57.20,51.60"/>
    </edge>
    <edge id=":J4_3" function="internal">
        <lane id=":J4_3_0" index="0" speed="6.51" length="9.03" shape="57.20,48.40 54.75,48.05 53.00,47.00 51.95,45.25 51.60,42.80"/>
    </edge>
    <edge id=":J4_4" function="internal">
        <lane id=":J4_4_0" index="0" speed="13.89" length="14.40" shape="57.20,48.40 42.80,48.40"/>
    </edge>
    <edge id=":J4_5" function="internal">
        <lane id=":J4_5_0" index="0" speed="8.00" length="14.19" shape="57.20,48.40 53.35,48.95 50.60,50.60 48.95,53.35 48.40,57.20"/>
    </edge>
    <edge id=":J4_6" function="internal">
        <lane id=":J4_6_0" index="0" speed="6.51" length="9.03" shape="51.60,57.20 51.95,54.75 53.00,53.00 54.75,51.95 57.20,51.60"/>
    </edge>
    <edge id=":J4_7" function="internal">
        <lane id=":J4_7_0" index="0" speed="13.89" length="14.40" shape="51.60,57.20 51.60,42.80"/>
    </edge>
    <edge id=":J4_8" function="internal">
        <lane id=":J4_8_0" index="0" speed="8.00" length="5.93" shape="51.60,57.20 51.05,53.35 50.00,51.60"/>
    </edge>
    <edge id=":J4_13" function="internal">
        <lane id=":J4_13_0" index="0" speed="8.00" length="8.26" shape="50.00,51.60 49.40,50.60 46.65,48.95 42.80,48.40"/>
    </edge>
    <edge id=":J4_9" function="internal">
        <lane id=":J4_9_0" index="0" speed="6.51" length="9.03" shape="42.80,51.60 45.25,51.95 47.00,53.00 48.05,54.75 48.40,57.20"/>
    </edge>
    <edge id=":J4_10" function="internal">
        <lane id=":J4_10_0" index="0" speed="13.89" length="14.40" shape="42.80,51.60 57.20,51.60"/>
    </edge>
    <edge id=":J4_11" function="internal">
        <lane id=":J4_11_0" index="0" speed="8.00" length="14.19" shape="42.80,51.60 46.65,51.05 49.40,49.40 51.05,46.65 51.60,42.80"/>
    </edge>

    <edge id="-E2" from="J4" to="J3" priority="-1">
        <lane id="-E2_0" index="0" speed="13.89" length="42.80" shape="48.40,57.20 48.40,100.00"/>
    </edge>
    <edge id="-E3" from="J5" to="J4" priority="-1">
        <lane id="-E3_0" index="0" speed="13.89" length="42.80" shape="48.40,0.00 48.40,42.80"/>
    </edge>
    <edge id="-E4" from="J4" to="J6" priority="-1">
        <lane id="-E4_0" index="0" speed="13.89" length="42.80" shape="42.80,48.40 0.00,48.40"/>
    </edge>
    <edge id="-E5" from="J7" to="J4" priority="-1">
        <lane id="-E5_0" index="0" speed="13.89" length="42.80" shape="100.00,48.40 57.20,48.40"/>
    </edge>
    <edge id="E2" from="J3" to="J4" priority="-1">
        <lane id="E2_0" index="0" speed="13.89" length="42.80" shape="51.60,100.00 51.60,57.20"/>
    </edge>
    <edge id="E3" from="J4" to="J5" priority="-1">
        <lane id="E3_0" index="0" speed="13.89" length="42.80" shape="51.60,42.80 51.60,0.00"/>
    </edge>
    <edge id="E4" from="J6" to="J4" priority="-1">
        <lane id="E4_0" index="0" speed="13.89" length="42.80" shape="0.00,51.60 42.80,51.60"/>
    </edge>
    <edge id="E5" from="J4" to="J7" priority="-1">
        <lane id="E5_0" index="0" speed="13.89" length="42.80" shape="57.20,51.60 100.00,51.60"/>
    </edge>

    <junction id="J3" type="dead_end" x="50.00" y="100.00" incLanes="-E2_0" intLanes="" shape="50.00,100.00 46.80,100.00 50.00,100.00"/>
    <junction id="J4" type="priority" x="50.00" y="50.00" incLanes="-E3_0 -E5_0 E2_0 E4_0" intLanes=":J4_0_0 :J4_1_0 :J4_12_0 :J4_3_0 :J4_4_0 :J4_5_0 :J4_6_0 :J4_7_0 :J4_13_0 :J4_9_0 :J4_10_0 :J4_11_0" shape="46.80,42.80 53.20,42.80 53.64,45.02 54.20,45.80 54.98,46.36 55.98,46.69 57.20,46.80 57.20,53.20 54.98,53.64 54.20,54.20 53.64,54.98 53.31,55.98 53.20,57.20 46.80,57.20 46.36,54.98 45.80,54.20 45.02,53.64 44.02,53.31 42.80,53.20 42.80,46.80 45.02,46.36 45.80,45.80 46.36,45.02 46.69,44.02">
        <request index="0"  response="000000000000" foes="000100010000" cont="0"/>
        <request index="1"  response="000000000000" foes="111100110000" cont="0"/>
        <request index="2"  response="000011000000" foes="110011110000" cont="1"/>
        <request index="3"  response="000010000000" foes="100010000000" cont="0"/>
        <request index="4"  response="000110000111" foes="100110000111" cont="0"/>
        <request index="5"  response="011110000110" foes="011110000110" cont="0"/>
        <request index="6"  response="000000000000" foes="010000000100" cont="0"/>
        <request index="7"  response="000000000000" foes="110000111100" cont="0"/>
        <request index="8"  response="000000000011" foes="110000110011" cont="1"/>
        <request index="9"  response="000000000010" foes="000000100010" cont="0"/>
        <request index="10" response="000111000110" foes="000111100110" cont="0"/>
        <request index="11" response="000110011110" foes="000110011110" cont="0"/>
    </junction>
    <junction id="J5" type="dead_end" x="50.00" y="0.00" incLanes="E3_0" intLanes="" shape="50.00,-0.00 53.20,-0.00 50.00,-0.00"/>
    <junction id="J6" type="dead_end" x="0.00" y="50.00" incLanes="-E4_0" intLanes="" shape="0.00,50.00 0.00,46.80 0.00,50.00"/>
    <junction id="J7" type="dead_end" x="100.00" y="50.00" incLanes="E5_0" intLanes="" shape="100.00,50.00 100.00,53.20 100.00,50.00"/>

    <junction id=":J4_12_0" type="internal" x="50.00" y="48.40" incLanes=":J4_2_0 E2_0" intLanes=":J4_4_0 :J4_5_0 :J4_6_0 :J4_7_0 :J4_10_0 :J4_11_0"/>
    <junction id=":J4_13_0" type="internal" x="50.00" y="51.60" incLanes=":J4_8_0 -E3_0" intLanes=":J4_0_0 :J4_1_0 :J4_4_0 :J4_5_0 :J4_10_0 :J4_11_0"/>

    <connection from="-E3" to="-E4" fromLane="0" toLane="0" via=":J4_0_0" dir="l" state="M"/>
    <connection from="-E3" to="-E2" fromLane="0" toLane="0" via=":J4_1_0" dir="s" state="M"/>
    <connection from="-E3" to="E5" fromLane="0" toLane="0" via=":J4_2_0" dir="r" state="m"/>
    <connection from="-E5" to="E3" fromLane="0" toLane="0" via=":J4_3_0" dir="l" state="m"/>
    <connection from="-E5" to="-E4" fromLane="0" toLane="0" via=":J4_4_0" dir="s" state="m"/>
    <connection from="-E5" to="-E2" fromLane="0" toLane="0" via=":J4_5_0" dir="r" state="m"/>
    <connection from="E2" to="E5" fromLane="0" toLane="0" via=":J4_6_0" dir="l" state="M"/>
    <connection from="E2" to="E3" fromLane="0" toLane="0" via=":J4_7_0" dir="s" state="M"/>
    <connection from="E2" to="-E4" fromLane="0" toLane="0" via=":J4_8_0" dir="r" state="m"/>
    <connection from="E4" to="-E2" fromLane="0" toLane="0" via=":J4_9_0" dir="l" state="m"/>
    <connection from="E4" to="E5" fromLane="0" toLane="0" via=":J4_10_0" dir="s" state="m"/>
    <connection from="E4" to="E3" fromLane="0" toLane="0" via=":J4_11_0" dir="r" state="m"/>

    <connection from=":J4_0" to="-E4" fromLane="0" toLane="0" dir="l" state="M"/>
    <connection from=":J4_1" to="-E2" fromLane="0" toLane="0" dir="s" state="M"/>
    <connection from=":J4_2" to="E5" fromLane="0" toLane="0" via=":J4_12_0" dir="r" state="m"/>
    <connection from=":J4_12" to="E5" fromLane="0" toLane="0" dir="r" state="M"/>
    <connection from=":J4_3" to="E3" fromLane="0" toLane="0" dir="l" state="M"/>
    <connection from=":J4_4" to="-E4" fromLane="0" toLane="0" dir="s" state="M"/>
    <connection from=":J4_5" to="-E2" fromLane="0" toLane="0" dir="r" state="M"/>
    <connection from=":J4_6" to="E5" fromLane="0" toLane="0" dir="l" state="M"/>
    <connection from=":J4_7" to="E3" fromLane="0" toLane="0" dir="s" state="M"/>
    <connection from=":J4_8" to="-E4" fromLane="0" toLane="0" via=":J4_13_0" dir="r" state="m"/>
    <connection from=":J4_13" to="-E4" fromLane="0" toLane="0" dir="r" state="M"/>
    <connection from=":J4_9" to="-E2" fromLane="0" toLane="0" dir="l" state="M"/>
    <connection from=":J4_10" to="E5" fromLane="0" toLane="0" dir="s" state="M"/>
    <connection from=":J4_11" to="E3" fromLane="0" toLane="0" dir="r" state="M"/>

</net>
