<?xml version="1.0" encoding="UTF-8"?>

<!-- generated on 2022-01-26 14:32:43 by Eclipse SUMO GUI Version 1.11.0
-->

<configuration xmlns:xsi="http://www.w3.org/2001/XMLSchema-instance" xsi:noNamespaceSchemaLocation="http://sumo.dlr.de/xsd/sumoConfiguration.xsd">

    <input>
        <net-file value="C:\Program%20Files%20(x86)\Eclipse\Sumo\crossroads.net.xml"/>
        <route-files value="C:\Program%20Files%20(x86)\Eclipse\Sumo\crossroads.rou.xml"/>
    </input>

</configuration>
