<?xml version="1.0" encoding="UTF-8"?>

<!-- generated on 2022-01-26 14:32:14 by Eclipse SUMO netedit Version 1.11.0
<configuration xmlns:xsi="http://www.w3.org/2001/XMLSchema-instance" xsi:noNamespaceSchemaLocation="http://sumo.dlr.de/xsd/netconvertConfiguration.xsd">

    <output>
        <output-file value="C:\Program%20Files%20(x86)\Eclipse\Sumo\crossroads.net.xml"/>
    </output>

    <processing>
        <offset.disable-normalization value="true"/>
    </processing>

    <junctions>
        <no-turnarounds value="true"/>
    </junctions>

    <report>
        <aggregate-warnings value="5"/>
    </report>

</configuration>
-->

<net version="1.9" junctionCornerDetail="5" limitTurnSpeed="5.50" xmlns:xsi="http://www.w3.org/2001/XMLSchema-instance" xsi:noNamespaceSchemaLocation="http://sumo.dlr.de/xsd/net_file.xsd">

    <location netOffset="0.00,0.00" convBoundary="0.00,0.00,100.00,100.00" origBoundary="10000000000.00,10000000000.00,-10000000000.00,-10000000000.00" projParameter="!"/>

    <edge id=":J4_0" function="internal">
        <lane id=":J4_0_0" index="0" speed="13.89" length="11.20" shape="48.40,54.00 48.40,42.80"/>
    </edge>
    <edge id=":J4_1" function="internal">
        <lane id=":J4_1_0" index="0" speed="6.51" length="4.28" shape="48.40,54.00 48.75,51.55 49.68,50.00"/>
    </edge>
    <edge id=":J4_4" function="internal">
        <lane id=":J4_4_0" index="0" speed="6.51" length="4.75" shape="49.68,50.00 49.80,49.80 51.55,48.75 54.00,48.40"/>
    </edge>
    <edge id=":J4_2" function="internal">
        <lane id=":J4_2_0" index="0" speed="6.51" length="9.03" shape="42.80,48.40 45.25,48.05 47.00,47.00 48.05,45.25 48.40,42.80"/>
    </edge>
    <edge id=":J4_3" function="internal">
        <lane id=":J4_3_0" index="0" speed="13.89" length="11.20" shape="42.80,48.40 54.00,48.40"/>
    </edge>

    <edge id="E2" from="J3" to="J4" priority="-1">
        <lane id="E2_0" index="0" speed="13.89" length="46.00" shape="48.40,100.00 48.40,54.00"/>
    </edge>
    <edge id="E3" from="J4" to="J5" priority="-1">
        <lane id="E3_0" index="0" speed="13.89" length="42.80" shape="48.40,42.80 48.40,0.00"/>
    </edge>
    <edge id="E4" from="J6" to="J4" priority="-1">
        <lane id="E4_0" index="0" speed="13.89" length="42.80" shape="0.00,48.40 42.80,48.40"/>
    </edge>
    <edge id="E5" from="J4" to="J7" priority="-1">
        <lane id="E5_0" index="0" speed="13.89" length="46.00" shape="54.00,48.40 100.00,48.40"/>
    </edge>

    <junction id="J3" type="dead_end" x="50.00" y="100.00" incLanes="" intLanes="" shape="50.00,100.00 46.80,100.00"/>
    <junction id="J4" type="priority" x="50.00" y="50.00" incLanes="E2_0 E4_0" intLanes=":J4_0_0 :J4_4_0 :J4_2_0 :J4_3_0" shape="46.80,54.00 50.00,54.00 50.44,51.78 51.00,51.00 51.78,50.44 52.78,50.11 54.00,50.00 54.00,46.80 51.78,46.36 51.00,45.80 50.44,45.02 50.11,44.02 50.00,42.80 46.80,42.80 46.36,45.02 45.80,45.80 45.02,46.36 44.02,46.69 42.80,46.80 42.80,50.00 45.02,50.44 45.80,51.00 46.36,51.78 46.69,52.78">
        <request index="0" response="1100" foes="1100" cont="0"/>
        <request index="1" response="1000" foes="1000" cont="1"/>
        <request index="2" response="0000" foes="0001" cont="0"/>
        <request index="3" response="0000" foes="0011" cont="0"/>
    </junction>
    <junction id="J5" type="dead_end" x="50.00" y="0.00" incLanes="E3_0" intLanes="" shape="46.80,0.00 50.00,0.00"/>
    <junction id="J6" type="dead_end" x="0.00" y="50.00" incLanes="" intLanes="" shape="0.00,50.00 0.00,46.80"/>
    <junction id="J7" type="dead_end" x="100.00" y="50.00" incLanes="E5_0" intLanes="" shape="100.00,46.80 100.00,50.00"/>

    <junction id=":J4_4_0" type="internal" x="49.68" y="50.00" incLanes=":J4_1_0 E4_0" intLanes=":J4_3_0"/>

    <connection from="E2" to="E3" fromLane="0" toLane="0" via=":J4_0_0" dir="s" state="m"/>
    <connection from="E2" to="E5" fromLane="0" toLane="0" via=":J4_1_0" dir="l" state="m"/>
    <connection from="E4" to="E3" fromLane="0" toLane="0" via=":J4_2_0" dir="r" state="M"/>
    <connection from="E4" to="E5" fromLane="0" toLane="0" via=":J4_3_0" dir="s" state="M"/>

    <connection from=":J4_0" to="E3" fromLane="0" toLane="0" dir="s" state="M"/>
    <connection from=":J4_1" to="E5" fromLane="0" toLane="0" via=":J4_4_0" dir="l" state="m"/>
    <connection from=":J4_4" to="E5" fromLane="0" toLane="0" dir="l" state="M"/>
    <connection from=":J4_2" to="E3" fromLane="0" toLane="0" dir="r" state="M"/>
    <connection from=":J4_3" to="E5" fromLane="0" toLane="0" dir="s" state="M"/>

</net>
